/*--------------------------------*- C++ -*----------------------------------*\
| =========                 |                                                 |
| \\      /  F ield         | OpenFOAM: The Open Source CFD Toolbox           |
|  \\    /   O peration     | Version:  2312                                  |
|   \\  /    A nd           | Website:  www.openfoam.com                      |
|    \\/     M anipulation  |                                                 |
\*---------------------------------------------------------------------------*/
FoamFile
{
    version     2.0;
    format      binary;
    arch        "LSB;label=32;scalar=64";
    class       polyBoundaryMesh;
    location    "constant/polyMesh";
    object      boundary;
}
// * * * * * * * * * * * * * * * * * * * * * * * * * * * * * * * * * * * * * //

74
(
    frontAndBack
    {
        type            patch;
        nFaces          54;
        startFace       172707;
    }
    inlet
    {
        type            patch;
        nFaces          36;
        startFace       172761;
    }
    outlet
    {
        type            patch;
        nFaces          0;
        startFace       172797;
    }
    lowerWall
    {
        type            wall;
        inGroups        1(wall);
        nFaces          662;
        startFace       172797;
    }
    upperWall
    {
        type            patch;
        nFaces          24;
        startFace       173459;
    }
    motorBike_frt-fairing:001%1
    {
        type            wall;
        inGroups        2(motorBikeGroup wall);
        nFaces          1929;
        startFace       173483;
    }
    motorBike_windshield:002%2
    {
        type            wall;
        inGroups        2(motorBikeGroup wall);
        nFaces          23;
        startFace       175412;
    }
    motorBike_rr-wh-rim:005%5
    {
        type            wall;
        inGroups        2(motorBikeGroup wall);
        nFaces          0;
        startFace       175435;
    }
    motorBike_rr-wh-rim:010%10
    {
        type            wall;
        inGroups        2(motorBikeGroup wall);
        nFaces          0;
        startFace       175435;
    }
    motorBike_fr-wh-rim:011%11
    {
        type            wall;
        inGroups        2(motorBikeGroup wall);
        nFaces          252;
        startFace       175435;
    }
    motorBike_fr-wh-brake-disk:012%12
    {
        type            wall;
        inGroups        2(motorBikeGroup wall);
        nFaces          25;
        startFace       175687;
    }
    motorBike_frame:016-shadow%13
    {
        type            wall;
        inGroups        2(motorBikeGroup wall);
        nFaces          50;
        startFace       175712;
    }
    motorBike_rear-susp:014%14
    {
        type            wall;
        inGroups        2(motorBikeGroup wall);
        nFaces          0;
        startFace       175762;
    }
    motorBike_rear-susp:014-shadow%15
    {
        type            wall;
        inGroups        2(motorBikeGroup wall);
        nFaces          0;
        startFace       175762;
    }
    motorBike_frame:016%16
    {
        type            wall;
        inGroups        2(motorBikeGroup wall);
        nFaces          21;
        startFace       175762;
    }
    motorBike_rr-wh-rim:005-shadow%17
    {
        type            wall;
        inGroups        2(motorBikeGroup wall);
        nFaces          0;
        startFace       175783;
    }
    motorBike_rr-wh-chain-hub:022%22
    {
        type            wall;
        inGroups        2(motorBikeGroup wall);
        nFaces          0;
        startFace       175783;
    }
    motorBike_rearseat%24
    {
        type            wall;
        inGroups        2(motorBikeGroup wall);
        nFaces          0;
        startFace       175783;
    }
    motorBike_frt-fairing%25
    {
        type            wall;
        inGroups        2(motorBikeGroup wall);
        nFaces          311;
        startFace       175783;
    }
    motorBike_windshield%26
    {
        type            wall;
        inGroups        2(motorBikeGroup wall);
        nFaces          191;
        startFace       176094;
    }
    motorBike_headlights%27
    {
        type            wall;
        inGroups        2(motorBikeGroup wall);
        nFaces          79;
        startFace       176285;
    }
    motorBike_driversseat%28
    {
        type            wall;
        inGroups        2(motorBikeGroup wall);
        nFaces          0;
        startFace       176364;
    }
    motorBike_rear-body%29
    {
        type            wall;
        inGroups        2(motorBikeGroup wall);
        nFaces          0;
        startFace       176364;
    }
    motorBike_fuel-tank%30
    {
        type            wall;
        inGroups        2(motorBikeGroup wall);
        nFaces          228;
        startFace       176364;
    }
    motorBike_exhaust%31
    {
        type            wall;
        inGroups        2(motorBikeGroup wall);
        nFaces          393;
        startFace       176592;
    }
    motorBike_rr-wh-rim%32
    {
        type            wall;
        inGroups        2(motorBikeGroup wall);
        nFaces          0;
        startFace       176985;
    }
    motorBike_fr-mud-guard%33
    {
        type            wall;
        inGroups        2(motorBikeGroup wall);
        nFaces          285;
        startFace       176985;
    }
    motorBike_fr-wh-rim%34
    {
        type            wall;
        inGroups        2(motorBikeGroup wall);
        nFaces          246;
        startFace       177270;
    }
    motorBike_fr-wh-brake-disk%35
    {
        type            wall;
        inGroups        2(motorBikeGroup wall);
        nFaces          228;
        startFace       177516;
    }
    motorBike_fr-brake-caliper%36
    {
        type            wall;
        inGroups        2(motorBikeGroup wall);
        nFaces          82;
        startFace       177744;
    }
    motorBike_fr-wh-tyre%37
    {
        type            wall;
        inGroups        2(motorBikeGroup wall);
        nFaces          526;
        startFace       177826;
    }
    motorBike_hbars%38
    {
        type            wall;
        inGroups        2(motorBikeGroup wall);
        nFaces          269;
        startFace       178352;
    }
    motorBike_fr-forks%39
    {
        type            wall;
        inGroups        2(motorBikeGroup wall);
        nFaces          561;
        startFace       178621;
    }
    motorBike_chain%40
    {
        type            wall;
        inGroups        2(motorBikeGroup wall);
        nFaces          0;
        startFace       179182;
    }
    motorBike_rr-wh-tyre%41
    {
        type            wall;
        inGroups        2(motorBikeGroup wall);
        nFaces          0;
        startFace       179182;
    }
    motorBike_square-dial%42
    {
        type            wall;
        inGroups        2(motorBikeGroup wall);
        nFaces          6;
        startFace       179182;
    }
    motorBike_round-dial%43
    {
        type            wall;
        inGroups        2(motorBikeGroup wall);
        nFaces          0;
        startFace       179188;
    }
    motorBike_dial-holder%44
    {
        type            wall;
        inGroups        2(motorBikeGroup wall);
        nFaces          40;
        startFace       179188;
    }
    motorBike_rear-susp%45
    {
        type            wall;
        inGroups        2(motorBikeGroup wall);
        nFaces          0;
        startFace       179228;
    }
    motorBike_rear-brake-lights%46
    {
        type            wall;
        inGroups        2(motorBikeGroup wall);
        nFaces          0;
        startFace       179228;
    }
    motorBike_rear-light-bracket%47
    {
        type            wall;
        inGroups        2(motorBikeGroup wall);
        nFaces          0;
        startFace       179228;
    }
    motorBike_frame%48
    {
        type            wall;
        inGroups        2(motorBikeGroup wall);
        nFaces          565;
        startFace       179228;
    }
    motorBike_rear-mud-guard%49
    {
        type            wall;
        inGroups        2(motorBikeGroup wall);
        nFaces          0;
        startFace       179793;
    }
    motorBike_rear-susp-spring-damp%50
    {
        type            wall;
        inGroups        2(motorBikeGroup wall);
        nFaces          0;
        startFace       179793;
    }
    motorBike_fairing-inner-plate%51
    {
        type            wall;
        inGroups        2(motorBikeGroup wall);
        nFaces          225;
        startFace       179793;
    }
    motorBike_clutch-housing%52
    {
        type            wall;
        inGroups        2(motorBikeGroup wall);
        nFaces          0;
        startFace       180018;
    }
    motorBike_radiator%53
    {
        type            wall;
        inGroups        2(motorBikeGroup wall);
        nFaces          0;
        startFace       180018;
    }
    motorBike_water-pipe%54
    {
        type            wall;
        inGroups        2(motorBikeGroup wall);
        nFaces          0;
        startFace       180018;
    }
    motorBike_water-pump%55
    {
        type            wall;
        inGroups        2(motorBikeGroup wall);
        nFaces          0;
        startFace       180018;
    }
    motorBike_engine%56
    {
        type            wall;
        inGroups        2(motorBikeGroup wall);
        nFaces          742;
        startFace       180018;
    }
    motorBike_rear-shock-link%57
    {
        type            wall;
        inGroups        2(motorBikeGroup wall);
        nFaces          0;
        startFace       180760;
    }
    motorBike_rear-brake-fluid-pot-bracket%58
    {
        type            wall;
        inGroups        2(motorBikeGroup wall);
        nFaces          0;
        startFace       180760;
    }
    motorBike_rear-brake-fluid-pot%59
    {
        type            wall;
        inGroups        2(motorBikeGroup wall);
        nFaces          0;
        startFace       180760;
    }
    motorBike_footpeg%60
    {
        type            wall;
        inGroups        2(motorBikeGroup wall);
        nFaces          0;
        startFace       180760;
    }
    motorBike_rr-wh-chain-hub%61
    {
        type            wall;
        inGroups        2(motorBikeGroup wall);
        nFaces          0;
        startFace       180760;
    }
    motorBike_rear-brake-caliper%62
    {
        type            wall;
        inGroups        2(motorBikeGroup wall);
        nFaces          0;
        startFace       180760;
    }
    motorBike_rider-helmet%65
    {
        type            wall;
        inGroups        2(motorBikeGroup wall);
        nFaces          394;
        startFace       180760;
    }
    motorBike_rider-visor%66
    {
        type            wall;
        inGroups        2(motorBikeGroup wall);
        nFaces          89;
        startFace       181154;
    }
    motorBike_rider-boots%67
    {
        type            wall;
        inGroups        2(motorBikeGroup wall);
        nFaces          0;
        startFace       181243;
    }
    motorBike_rider-gloves%68
    {
        type            wall;
        inGroups        2(motorBikeGroup wall);
        nFaces          162;
        startFace       181243;
    }
    motorBike_rider-body%69
    {
        type            wall;
        inGroups        2(motorBikeGroup wall);
        nFaces          222;
        startFace       181405;
    }
    motorBike_frame:0%70
    {
        type            wall;
        inGroups        2(motorBikeGroup wall);
        nFaces          0;
        startFace       181627;
    }
    motorBike_frt-fairing:001-shadow%74
    {
        type            wall;
        inGroups        2(motorBikeGroup wall);
        nFaces          1198;
        startFace       181627;
    }
    motorBike_windshield-shadow%75
    {
        type            wall;
        inGroups        2(motorBikeGroup wall);
        nFaces          112;
        startFace       182825;
    }
    motorBike_fr-mud-guard-shadow%81
    {
        type            wall;
        inGroups        2(motorBikeGroup wall);
        nFaces          188;
        startFace       182937;
    }
    motorBike_fr-wh-brake-disk-shadow%83
    {
        type            wall;
        inGroups        2(motorBikeGroup wall);
        nFaces          92;
        startFace       183125;
    }
    motorBike_rear-mud-guard-shadow%84
    {
        type            wall;
        inGroups        2(motorBikeGroup wall);
        nFaces          0;
        startFace       183217;
    }
    motorBike_rear-susp-spring-damp-shadow%85
    {
        type            wall;
        inGroups        2(motorBikeGroup wall);
        nFaces          0;
        startFace       183217;
    }
    motorBike_radiator-shadow%86
    {
        type            wall;
        inGroups        2(motorBikeGroup wall);
        nFaces          0;
        startFace       183217;
    }
    motorBike_rear-shock-link-shadow%87
    {
        type            wall;
        inGroups        2(motorBikeGroup wall);
        nFaces          0;
        startFace       183217;
    }
    motorBike_rear-brake-fluid-pot-bracket-shadow%88
    {
        type            wall;
        inGroups        2(motorBikeGroup wall);
        nFaces          0;
        startFace       183217;
    }
    motorBike_rr-wh-chain-hub-shadow%89
    {
        type            wall;
        inGroups        2(motorBikeGroup wall);
        nFaces          0;
        startFace       183217;
    }
    procBoundary0to1
    {
        type            processor;
        inGroups        1(processor);
        nFaces          2029;
        startFace       183217;
        matchTolerance  0.0001;
        transform       unknown;
        myProcNo        0;
        neighbProcNo    1;
    }
    procBoundary0to3
    {
        type            processor;
        inGroups        1(processor);
        nFaces          4310;
        startFace       185246;
        matchTolerance  0.0001;
        transform       unknown;
        myProcNo        0;
        neighbProcNo    3;
    }
)

// ************************************************************************* //
