/*--------------------------------*- C++ -*----------------------------------*\
| =========                 |                                                 |
| \\      /  F ield         | OpenFOAM: The Open Source CFD Toolbox           |
|  \\    /   O peration     | Version:  2312                                  |
|   \\  /    A nd           | Website:  www.openfoam.com                      |
|    \\/     M anipulation  |                                                 |
\*---------------------------------------------------------------------------*/
FoamFile
{
    version     2.0;
    format      binary;
    arch        "LSB;label=32;scalar=64";
    class       polyBoundaryMesh;
    location    "constant/polyMesh";
    object      boundary;
}
// * * * * * * * * * * * * * * * * * * * * * * * * * * * * * * * * * * * * * //

75
(
    frontAndBack
    {
        type            patch;
        nFaces          117;
        startFace       176494;
    }
    inlet
    {
        type            patch;
        nFaces          0;
        startFace       176611;
    }
    outlet
    {
        type            patch;
        nFaces          36;
        startFace       176611;
    }
    lowerWall
    {
        type            wall;
        inGroups        1(wall);
        nFaces          1531;
        startFace       176647;
    }
    upperWall
    {
        type            patch;
        nFaces          52;
        startFace       178178;
    }
    motorBike_frt-fairing:001%1
    {
        type            wall;
        inGroups        2(motorBikeGroup wall);
        nFaces          0;
        startFace       178230;
    }
    motorBike_windshield:002%2
    {
        type            wall;
        inGroups        2(motorBikeGroup wall);
        nFaces          0;
        startFace       178230;
    }
    motorBike_rr-wh-rim:005%5
    {
        type            wall;
        inGroups        2(motorBikeGroup wall);
        nFaces          0;
        startFace       178230;
    }
    motorBike_rr-wh-rim:010%10
    {
        type            wall;
        inGroups        2(motorBikeGroup wall);
        nFaces          0;
        startFace       178230;
    }
    motorBike_fr-wh-rim:011%11
    {
        type            wall;
        inGroups        2(motorBikeGroup wall);
        nFaces          0;
        startFace       178230;
    }
    motorBike_fr-wh-brake-disk:012%12
    {
        type            wall;
        inGroups        2(motorBikeGroup wall);
        nFaces          0;
        startFace       178230;
    }
    motorBike_frame:016-shadow%13
    {
        type            wall;
        inGroups        2(motorBikeGroup wall);
        nFaces          0;
        startFace       178230;
    }
    motorBike_rear-susp:014%14
    {
        type            wall;
        inGroups        2(motorBikeGroup wall);
        nFaces          0;
        startFace       178230;
    }
    motorBike_rear-susp:014-shadow%15
    {
        type            wall;
        inGroups        2(motorBikeGroup wall);
        nFaces          0;
        startFace       178230;
    }
    motorBike_frame:016%16
    {
        type            wall;
        inGroups        2(motorBikeGroup wall);
        nFaces          0;
        startFace       178230;
    }
    motorBike_rr-wh-rim:005-shadow%17
    {
        type            wall;
        inGroups        2(motorBikeGroup wall);
        nFaces          0;
        startFace       178230;
    }
    motorBike_rr-wh-chain-hub:022%22
    {
        type            wall;
        inGroups        2(motorBikeGroup wall);
        nFaces          0;
        startFace       178230;
    }
    motorBike_rearseat%24
    {
        type            wall;
        inGroups        2(motorBikeGroup wall);
        nFaces          0;
        startFace       178230;
    }
    motorBike_frt-fairing%25
    {
        type            wall;
        inGroups        2(motorBikeGroup wall);
        nFaces          0;
        startFace       178230;
    }
    motorBike_windshield%26
    {
        type            wall;
        inGroups        2(motorBikeGroup wall);
        nFaces          0;
        startFace       178230;
    }
    motorBike_headlights%27
    {
        type            wall;
        inGroups        2(motorBikeGroup wall);
        nFaces          0;
        startFace       178230;
    }
    motorBike_driversseat%28
    {
        type            wall;
        inGroups        2(motorBikeGroup wall);
        nFaces          0;
        startFace       178230;
    }
    motorBike_rear-body%29
    {
        type            wall;
        inGroups        2(motorBikeGroup wall);
        nFaces          85;
        startFace       178230;
    }
    motorBike_fuel-tank%30
    {
        type            wall;
        inGroups        2(motorBikeGroup wall);
        nFaces          0;
        startFace       178315;
    }
    motorBike_exhaust%31
    {
        type            wall;
        inGroups        2(motorBikeGroup wall);
        nFaces          0;
        startFace       178315;
    }
    motorBike_rr-wh-rim%32
    {
        type            wall;
        inGroups        2(motorBikeGroup wall);
        nFaces          0;
        startFace       178315;
    }
    motorBike_fr-mud-guard%33
    {
        type            wall;
        inGroups        2(motorBikeGroup wall);
        nFaces          0;
        startFace       178315;
    }
    motorBike_fr-wh-rim%34
    {
        type            wall;
        inGroups        2(motorBikeGroup wall);
        nFaces          0;
        startFace       178315;
    }
    motorBike_fr-wh-brake-disk%35
    {
        type            wall;
        inGroups        2(motorBikeGroup wall);
        nFaces          0;
        startFace       178315;
    }
    motorBike_fr-brake-caliper%36
    {
        type            wall;
        inGroups        2(motorBikeGroup wall);
        nFaces          0;
        startFace       178315;
    }
    motorBike_fr-wh-tyre%37
    {
        type            wall;
        inGroups        2(motorBikeGroup wall);
        nFaces          0;
        startFace       178315;
    }
    motorBike_hbars%38
    {
        type            wall;
        inGroups        2(motorBikeGroup wall);
        nFaces          0;
        startFace       178315;
    }
    motorBike_fr-forks%39
    {
        type            wall;
        inGroups        2(motorBikeGroup wall);
        nFaces          0;
        startFace       178315;
    }
    motorBike_chain%40
    {
        type            wall;
        inGroups        2(motorBikeGroup wall);
        nFaces          0;
        startFace       178315;
    }
    motorBike_rr-wh-tyre%41
    {
        type            wall;
        inGroups        2(motorBikeGroup wall);
        nFaces          221;
        startFace       178315;
    }
    motorBike_square-dial%42
    {
        type            wall;
        inGroups        2(motorBikeGroup wall);
        nFaces          0;
        startFace       178536;
    }
    motorBike_round-dial%43
    {
        type            wall;
        inGroups        2(motorBikeGroup wall);
        nFaces          0;
        startFace       178536;
    }
    motorBike_dial-holder%44
    {
        type            wall;
        inGroups        2(motorBikeGroup wall);
        nFaces          0;
        startFace       178536;
    }
    motorBike_rear-susp%45
    {
        type            wall;
        inGroups        2(motorBikeGroup wall);
        nFaces          0;
        startFace       178536;
    }
    motorBike_rear-brake-lights%46
    {
        type            wall;
        inGroups        2(motorBikeGroup wall);
        nFaces          38;
        startFace       178536;
    }
    motorBike_rear-light-bracket%47
    {
        type            wall;
        inGroups        2(motorBikeGroup wall);
        nFaces          55;
        startFace       178574;
    }
    motorBike_frame%48
    {
        type            wall;
        inGroups        2(motorBikeGroup wall);
        nFaces          0;
        startFace       178629;
    }
    motorBike_rear-mud-guard%49
    {
        type            wall;
        inGroups        2(motorBikeGroup wall);
        nFaces          0;
        startFace       178629;
    }
    motorBike_rear-susp-spring-damp%50
    {
        type            wall;
        inGroups        2(motorBikeGroup wall);
        nFaces          0;
        startFace       178629;
    }
    motorBike_fairing-inner-plate%51
    {
        type            wall;
        inGroups        2(motorBikeGroup wall);
        nFaces          0;
        startFace       178629;
    }
    motorBike_clutch-housing%52
    {
        type            wall;
        inGroups        2(motorBikeGroup wall);
        nFaces          0;
        startFace       178629;
    }
    motorBike_radiator%53
    {
        type            wall;
        inGroups        2(motorBikeGroup wall);
        nFaces          0;
        startFace       178629;
    }
    motorBike_water-pipe%54
    {
        type            wall;
        inGroups        2(motorBikeGroup wall);
        nFaces          0;
        startFace       178629;
    }
    motorBike_water-pump%55
    {
        type            wall;
        inGroups        2(motorBikeGroup wall);
        nFaces          0;
        startFace       178629;
    }
    motorBike_engine%56
    {
        type            wall;
        inGroups        2(motorBikeGroup wall);
        nFaces          0;
        startFace       178629;
    }
    motorBike_rear-shock-link%57
    {
        type            wall;
        inGroups        2(motorBikeGroup wall);
        nFaces          0;
        startFace       178629;
    }
    motorBike_rear-brake-fluid-pot-bracket%58
    {
        type            wall;
        inGroups        2(motorBikeGroup wall);
        nFaces          0;
        startFace       178629;
    }
    motorBike_rear-brake-fluid-pot%59
    {
        type            wall;
        inGroups        2(motorBikeGroup wall);
        nFaces          0;
        startFace       178629;
    }
    motorBike_footpeg%60
    {
        type            wall;
        inGroups        2(motorBikeGroup wall);
        nFaces          0;
        startFace       178629;
    }
    motorBike_rr-wh-chain-hub%61
    {
        type            wall;
        inGroups        2(motorBikeGroup wall);
        nFaces          0;
        startFace       178629;
    }
    motorBike_rear-brake-caliper%62
    {
        type            wall;
        inGroups        2(motorBikeGroup wall);
        nFaces          0;
        startFace       178629;
    }
    motorBike_rider-helmet%65
    {
        type            wall;
        inGroups        2(motorBikeGroup wall);
        nFaces          0;
        startFace       178629;
    }
    motorBike_rider-visor%66
    {
        type            wall;
        inGroups        2(motorBikeGroup wall);
        nFaces          0;
        startFace       178629;
    }
    motorBike_rider-boots%67
    {
        type            wall;
        inGroups        2(motorBikeGroup wall);
        nFaces          0;
        startFace       178629;
    }
    motorBike_rider-gloves%68
    {
        type            wall;
        inGroups        2(motorBikeGroup wall);
        nFaces          0;
        startFace       178629;
    }
    motorBike_rider-body%69
    {
        type            wall;
        inGroups        2(motorBikeGroup wall);
        nFaces          0;
        startFace       178629;
    }
    motorBike_frame:0%70
    {
        type            wall;
        inGroups        2(motorBikeGroup wall);
        nFaces          0;
        startFace       178629;
    }
    motorBike_frt-fairing:001-shadow%74
    {
        type            wall;
        inGroups        2(motorBikeGroup wall);
        nFaces          0;
        startFace       178629;
    }
    motorBike_windshield-shadow%75
    {
        type            wall;
        inGroups        2(motorBikeGroup wall);
        nFaces          0;
        startFace       178629;
    }
    motorBike_fr-mud-guard-shadow%81
    {
        type            wall;
        inGroups        2(motorBikeGroup wall);
        nFaces          0;
        startFace       178629;
    }
    motorBike_fr-wh-brake-disk-shadow%83
    {
        type            wall;
        inGroups        2(motorBikeGroup wall);
        nFaces          0;
        startFace       178629;
    }
    motorBike_rear-mud-guard-shadow%84
    {
        type            wall;
        inGroups        2(motorBikeGroup wall);
        nFaces          0;
        startFace       178629;
    }
    motorBike_rear-susp-spring-damp-shadow%85
    {
        type            wall;
        inGroups        2(motorBikeGroup wall);
        nFaces          0;
        startFace       178629;
    }
    motorBike_radiator-shadow%86
    {
        type            wall;
        inGroups        2(motorBikeGroup wall);
        nFaces          0;
        startFace       178629;
    }
    motorBike_rear-shock-link-shadow%87
    {
        type            wall;
        inGroups        2(motorBikeGroup wall);
        nFaces          0;
        startFace       178629;
    }
    motorBike_rear-brake-fluid-pot-bracket-shadow%88
    {
        type            wall;
        inGroups        2(motorBikeGroup wall);
        nFaces          0;
        startFace       178629;
    }
    motorBike_rr-wh-chain-hub-shadow%89
    {
        type            wall;
        inGroups        2(motorBikeGroup wall);
        nFaces          0;
        startFace       178629;
    }
    procBoundary2to1
    {
        type            processor;
        inGroups        1(processor);
        nFaces          1382;
        startFace       178629;
        matchTolerance  0.0001;
        transform       unknown;
        myProcNo        2;
        neighbProcNo    1;
    }
    procBoundary2to4
    {
        type            processor;
        inGroups        1(processor);
        nFaces          39;
        startFace       180011;
        matchTolerance  0.0001;
        transform       unknown;
        myProcNo        2;
        neighbProcNo    4;
    }
    procBoundary2to5
    {
        type            processor;
        inGroups        1(processor);
        nFaces          4924;
        startFace       180050;
        matchTolerance  0.0001;
        transform       unknown;
        myProcNo        2;
        neighbProcNo    5;
    }
)

// ************************************************************************* //
